<?xml version="1.0" encoding="UTF-8"?>

<vehicleDefinitions xmlns="http://www.matsim.org/files/dtd" xmlns:xsi="http://www.w3.org/2001/XMLSchema-instance" xsi:schemaLocation="http://www.matsim.org/files/dtd http://www.matsim.org/files/dtd/vehicleDefinitions_v1.0.xsd">
	<vehicleType id="tram_93pax">
		<capacity>
			<seats persons="52"/>
			<standingRoom persons="93"/>
		</capacity>
		<length meter="28.0"/>
		<width meter="1.0"/>
		<accessTime secondsPerPerson="1.0"/>
		<egressTime secondsPerPerson="1.0"/>
		<doorOperation mode="serial"/>
		<passengerCarEquivalents pce="1.0"/>
	</vehicleType>
	<vehicleType id="bus_90pax">
		<capacity>
			<seats persons="52"/>
			<standingRoom persons="90"/>
		</capacity>
		<length meter="18.0"/>
		<width meter="1.0"/>
		<accessTime secondsPerPerson="1.0"/>
		<egressTime secondsPerPerson="1.0"/>
		<doorOperation mode="serial"/>
		<passengerCarEquivalents pce="1.0"/>
	</vehicleType>
	<vehicleType id="bus_64pax">
		<capacity>
			<seats persons="35"/>
			<standingRoom persons="64"/>
		</capacity>
		<length meter="12.0"/>
		<width meter="1.0"/>
		<accessTime secondsPerPerson="1.0"/>
		<egressTime secondsPerPerson="1.0"/>
		<doorOperation mode="serial"/>
		<passengerCarEquivalents pce="1.0"/>
	</vehicleType>
	<vehicleType id="train">
		<capacity>
			<seats persons="72"/>
			<standingRoom persons="30"/>
		</capacity>
		<length meter="25.5"/>
		<width meter="1.0"/>
		<accessTime secondsPerPerson="1.0"/>
		<egressTime secondsPerPerson="1.0"/>
		<doorOperation mode="serial"/>
		<passengerCarEquivalents pce="1.0"/>
	</vehicleType>
	<vehicle id="1_0" type="tram_93pax"/>
	<vehicle id="1_1" type="tram_93pax"/>
	<vehicle id="1_2" type="tram_93pax"/>
	<vehicle id="1_3" type="tram_93pax"/>
	<vehicle id="1_4" type="tram_93pax"/>
	<vehicle id="2_0" type="tram_93pax"/>
	<vehicle id="2_1" type="tram_93pax"/>
	<vehicle id="2_2" type="tram_93pax"/>
	<vehicle id="2_3" type="tram_93pax"/>
	<vehicle id="2_4" type="tram_93pax"/>
	<vehicle id="3_0" type="tram_93pax"/>
	<vehicle id="3_1" type="tram_93pax"/>
	<vehicle id="3_2" type="tram_93pax"/>
	<vehicle id="3_3" type="tram_93pax"/>
	<vehicle id="3_4" type="tram_93pax"/>
	<vehicle id="4_0" type="tram_93pax"/>
	<vehicle id="4_1" type="tram_93pax"/>
	<vehicle id="4_2" type="tram_93pax"/>
	<vehicle id="4_3" type="tram_93pax"/>
	<vehicle id="4_4" type="tram_93pax"/>
	<vehicle id="10_0" type="bus_90pax"/>
	<vehicle id="10_1" type="bus_90pax"/>
	<vehicle id="10_2" type="bus_90pax"/>
	<vehicle id="10_3" type="bus_90pax"/>
	<vehicle id="10_4" type="bus_90pax"/>
	<vehicle id="12_0" type="bus_90pax"/>
	<vehicle id="12_1" type="bus_90pax"/>
	<vehicle id="12_2" type="bus_90pax"/>
	<vehicle id="12_3" type="bus_90pax"/>
	<vehicle id="12_4" type="bus_90pax"/>
	<vehicle id="13_0" type="bus_90pax"/>
	<vehicle id="13_1" type="bus_90pax"/>
	<vehicle id="13_2" type="bus_90pax"/>
	<vehicle id="13_3" type="bus_90pax"/>
	<vehicle id="13_4" type="bus_90pax"/>
	<vehicle id="15_0" type="bus_90pax"/>
	<vehicle id="15_1" type="bus_90pax"/>
	<vehicle id="15_2" type="bus_90pax"/>
	<vehicle id="15_3" type="bus_90pax"/>
	<vehicle id="15_4" type="bus_90pax"/>
	<vehicle id="16_0" type="bus_90pax"/>
	<vehicle id="16_1" type="bus_90pax"/>
	<vehicle id="16_2" type="bus_90pax"/>
	<vehicle id="16_3" type="bus_90pax"/>
	<vehicle id="16_4" type="bus_90pax"/>
	<vehicle id="19_0" type="bus_90pax"/>
	<vehicle id="19_1" type="bus_90pax"/>
	<vehicle id="19_2" type="bus_90pax"/>
	<vehicle id="19_3" type="bus_90pax"/>
	<vehicle id="19_4" type="bus_90pax"/>
	<vehicle id="20_0" type="bus_90pax"/>
	<vehicle id="20_1" type="bus_90pax"/>
	<vehicle id="20_2" type="bus_90pax"/>
	<vehicle id="20_3" type="bus_90pax"/>
	<vehicle id="20_4" type="bus_90pax"/>
	<vehicle id="21_0" type="bus_90pax"/>
	<vehicle id="21_1" type="bus_90pax"/>
	<vehicle id="21_2" type="bus_90pax"/>
	<vehicle id="21_3" type="bus_90pax"/>
	<vehicle id="21_4" type="bus_90pax"/>
	<vehicle id="1417_0" type="bus_90pax"/>
	<vehicle id="1417_1" type="bus_90pax"/>
	<vehicle id="1417_2" type="bus_90pax"/>
	<vehicle id="1417_3" type="bus_90pax"/>
	<vehicle id="1417_4" type="bus_90pax"/>
	<vehicle id="rb43_0" type="train"/>
	<vehicle id="rb43_1" type="train"/>
	<vehicle id="rb43_2" type="train"/>
	<vehicle id="rb43_3" type="train"/>
	<vehicle id="rb43_4" type="train"/>
	<vehicle id="re2_0" type="train"/>
	<vehicle id="re2_1" type="train"/>
	<vehicle id="re2_2" type="train"/>
	<vehicle id="re2_3" type="train"/>
	<vehicle id="re2_4" type="train"/>
	<vehicle id="re11_0" type="train"/>
	<vehicle id="re11_1" type="train"/>
	<vehicle id="re11_2" type="train"/>
	<vehicle id="re11_3" type="train"/>
	<vehicle id="re11_4" type="train"/>
</vehicleDefinitions>